<?xml version="1.0" encoding="UTF-8"?>

<!-- generated on Fri Jul  2 12:04:07 2021 by Eclipse SUMO netconvert Version 1.9.0
<configuration xmlns:xsi="http://www.w3.org/2001/XMLSchema-instance" xsi:noNamespaceSchemaLocation="http://sumo.dlr.de/xsd/netconvertConfiguration.xsd">

    <input>
        <node-files value="single-intersection.nod.xml"/>
        <edge-files value="single-intersection.edg.xml"/>
    </input>

    <output>
        <output-file value="single-intersection.net.xml"/>
        <plain-output-prefix value="true"/>
    </output>

    <report>
        <aggregate-warnings value="5"/>
    </report>

</configuration>
-->

<nodes version="1.9" xmlns:xsi="http://www.w3.org/2001/XMLSchema-instance" xsi:noNamespaceSchemaLocation="http://sumo.dlr.de/xsd/nodes_file.xsd">
    <location netOffset="100.00,100.00" convBoundary="0.00,0.00,200.00,200.00" origBoundary="-100.00,-100.00,100.00,100.00" projParameter="!"/>

    <node id="e" x="200.00" y="100.00" type="dead_end"/>
    <node id="n" x="100.00" y="200.00" type="dead_end"/>
    <node id="s" x="100.00" y="0.00" type="dead_end"/>
    <node id="t" x="100.00" y="100.00" type="priority"/>
    <node id="w" x="0.00" y="100.00" type="dead_end"/>
</nodes>
