<?xml version="1.0" encoding="UTF-8"?>

<!-- generated on Fri Jul  2 12:04:07 2021 by Eclipse SUMO netconvert Version 1.9.0
<configuration xmlns:xsi="http://www.w3.org/2001/XMLSchema-instance" xsi:noNamespaceSchemaLocation="http://sumo.dlr.de/xsd/netconvertConfiguration.xsd">

    <input>
        <node-files value="single-intersection.nod.xml"/>
        <edge-files value="single-intersection.edg.xml"/>
    </input>

    <output>
        <output-file value="single-intersection.net.xml"/>
        <plain-output-prefix value="true"/>
    </output>

    <report>
        <aggregate-warnings value="5"/>
    </report>

</configuration>
-->

<connections version="1.9" xmlns:xsi="http://www.w3.org/2001/XMLSchema-instance" xsi:noNamespaceSchemaLocation="http://sumo.dlr.de/xsd/connections_file.xsd">
    <connection from="n_t" to="t_s" fromLane="0" toLane="0"/>
    <connection from="n_t" to="t_s" fromLane="1" toLane="1"/>
    <connection from="n_t" to="t_e" fromLane="1" toLane="1"/>

    <connection from="w_t" to="t_s" fromLane="0" toLane="0"/>
    <connection from="w_t" to="t_e" fromLane="0" toLane="0"/>
    <connection from="w_t" to="t_e" fromLane="1" toLane="1"/>

</connections>
